
---------- Begin Simulation Statistics ----------
sim_seconds                                  0.011801                       # Number of seconds simulated
sim_ticks                                 11801188000                       # Number of ticks simulated
final_tick                                11801188000                       # Number of ticks from beginning of simulation (restored from checkpoints and never reset)
sim_freq                                 1000000000000                       # Frequency of simulated ticks
host_inst_rate                                 224072                       # Simulator instruction rate (inst/s)
host_op_rate                                   390088                       # Simulator op (including micro ops) rate (op/s)
host_tick_rate                               75480907                       # Simulator tick rate (ticks/s)
host_mem_usage                                 720864                       # Number of bytes of host memory used
host_seconds                                   156.35                       # Real time elapsed on the host
sim_insts                                    35032856                       # Number of instructions simulated
sim_ops                                      60989001                       # Number of ops (including micro ops) simulated
system.voltage_domain.voltage                       1                       # Voltage in Volts
system.clk_domain.clock                          1000                       # Clock period in ticks
system.mem_ctrls.pwrStateResidencyTicks::UNDEFINED  11801188000                       # Cumulative time (in ticks) in various power states
system.mem_ctrls.bytes_read::.cpu.inst         130624                       # Number of bytes read from this memory
system.mem_ctrls.bytes_read::.cpu.data        1048896                       # Number of bytes read from this memory
system.mem_ctrls.bytes_read::total            1179520                       # Number of bytes read from this memory
system.mem_ctrls.bytes_inst_read::.cpu.inst       130624                       # Number of instructions bytes read from this memory
system.mem_ctrls.bytes_inst_read::total        130624                       # Number of instructions bytes read from this memory
system.mem_ctrls.num_reads::.cpu.inst            2041                       # Number of read requests responded to by this memory
system.mem_ctrls.num_reads::.cpu.data           16389                       # Number of read requests responded to by this memory
system.mem_ctrls.num_reads::total               18430                       # Number of read requests responded to by this memory
system.mem_ctrls.bw_read::.cpu.inst          11068716                       # Total read bandwidth from this memory (bytes/s)
system.mem_ctrls.bw_read::.cpu.data          88880543                       # Total read bandwidth from this memory (bytes/s)
system.mem_ctrls.bw_read::total              99949259                       # Total read bandwidth from this memory (bytes/s)
system.mem_ctrls.bw_inst_read::.cpu.inst     11068716                       # Instruction read bandwidth from this memory (bytes/s)
system.mem_ctrls.bw_inst_read::total         11068716                       # Instruction read bandwidth from this memory (bytes/s)
system.mem_ctrls.bw_total::.cpu.inst         11068716                       # Total bandwidth to/from this memory (bytes/s)
system.mem_ctrls.bw_total::.cpu.data         88880543                       # Total bandwidth to/from this memory (bytes/s)
system.mem_ctrls.bw_total::total             99949259                       # Total bandwidth to/from this memory (bytes/s)
system.mem_ctrls.avgPriority_.cpu.inst::samples      2041.00                       # Average QoS priority value for accepted requests
system.mem_ctrls.avgPriority_.cpu.data::samples     16389.00                       # Average QoS priority value for accepted requests
system.mem_ctrls.priorityMinLatency      0.000000018750                       # per QoS priority minimum request to response latency (s)
system.mem_ctrls.priorityMaxLatency      0.000001102750                       # per QoS priority maximum request to response latency (s)
system.mem_ctrls.numReadWriteTurnArounds            0                       # Number of turnarounds from READ to WRITE
system.mem_ctrls.numWriteReadTurnArounds            0                       # Number of turnarounds from WRITE to READ
system.mem_ctrls.numStayReadState               37378                       # Number of times bus staying in READ state
system.mem_ctrls.numStayWriteState                  0                       # Number of times bus staying in WRITE state
system.mem_ctrls.readReqs                       18430                       # Number of read requests accepted
system.mem_ctrls.writeReqs                          0                       # Number of write requests accepted
system.mem_ctrls.readBursts                     18430                       # Number of DRAM read bursts, including those serviced by the write queue
system.mem_ctrls.writeBursts                        0                       # Number of DRAM write bursts, including those merged in the write queue
system.mem_ctrls.bytesReadDRAM                1179520                       # Total number of bytes read from DRAM
system.mem_ctrls.bytesReadWrQ                       0                       # Total number of bytes read from write queue
system.mem_ctrls.bytesWritten                       0                       # Total number of bytes written to DRAM
system.mem_ctrls.bytesReadSys                 1179520                       # Total read bytes from the system interface side
system.mem_ctrls.bytesWrittenSys                    0                       # Total written bytes from the system interface side
system.mem_ctrls.servicedByWrQ                      0                       # Number of DRAM read bursts serviced by the write queue
system.mem_ctrls.mergedWrBursts                     0                       # Number of DRAM write bursts merged with an existing one
system.mem_ctrls.neitherReadNorWriteReqs            0                       # Number of requests that are neither read nor write
system.mem_ctrls.perBankRdBursts::0              1282                       # Per bank write bursts
system.mem_ctrls.perBankRdBursts::1              1190                       # Per bank write bursts
system.mem_ctrls.perBankRdBursts::2              1132                       # Per bank write bursts
system.mem_ctrls.perBankRdBursts::3              1012                       # Per bank write bursts
system.mem_ctrls.perBankRdBursts::4              1261                       # Per bank write bursts
system.mem_ctrls.perBankRdBursts::5              1166                       # Per bank write bursts
system.mem_ctrls.perBankRdBursts::6              1340                       # Per bank write bursts
system.mem_ctrls.perBankRdBursts::7              1131                       # Per bank write bursts
system.mem_ctrls.perBankRdBursts::8              1117                       # Per bank write bursts
system.mem_ctrls.perBankRdBursts::9              1117                       # Per bank write bursts
system.mem_ctrls.perBankRdBursts::10             1047                       # Per bank write bursts
system.mem_ctrls.perBankRdBursts::11             1147                       # Per bank write bursts
system.mem_ctrls.perBankRdBursts::12             1142                       # Per bank write bursts
system.mem_ctrls.perBankRdBursts::13             1103                       # Per bank write bursts
system.mem_ctrls.perBankRdBursts::14             1137                       # Per bank write bursts
system.mem_ctrls.perBankRdBursts::15             1106                       # Per bank write bursts
system.mem_ctrls.perBankWrBursts::0                 0                       # Per bank write bursts
system.mem_ctrls.perBankWrBursts::1                 0                       # Per bank write bursts
system.mem_ctrls.perBankWrBursts::2                 0                       # Per bank write bursts
system.mem_ctrls.perBankWrBursts::3                 0                       # Per bank write bursts
system.mem_ctrls.perBankWrBursts::4                 0                       # Per bank write bursts
system.mem_ctrls.perBankWrBursts::5                 0                       # Per bank write bursts
system.mem_ctrls.perBankWrBursts::6                 0                       # Per bank write bursts
system.mem_ctrls.perBankWrBursts::7                 0                       # Per bank write bursts
system.mem_ctrls.perBankWrBursts::8                 0                       # Per bank write bursts
system.mem_ctrls.perBankWrBursts::9                 0                       # Per bank write bursts
system.mem_ctrls.perBankWrBursts::10                0                       # Per bank write bursts
system.mem_ctrls.perBankWrBursts::11                0                       # Per bank write bursts
system.mem_ctrls.perBankWrBursts::12                0                       # Per bank write bursts
system.mem_ctrls.perBankWrBursts::13                0                       # Per bank write bursts
system.mem_ctrls.perBankWrBursts::14                0                       # Per bank write bursts
system.mem_ctrls.perBankWrBursts::15                0                       # Per bank write bursts
system.mem_ctrls.numRdRetry                         0                       # Number of times read queue was full causing retry
system.mem_ctrls.numWrRetry                         0                       # Number of times write queue was full causing retry
system.mem_ctrls.totGap                   11801104000                       # Total gap between requests
system.mem_ctrls.readPktSize::0                     0                       # Read request sizes (log2)
system.mem_ctrls.readPktSize::1                     0                       # Read request sizes (log2)
system.mem_ctrls.readPktSize::2                     0                       # Read request sizes (log2)
system.mem_ctrls.readPktSize::3                     0                       # Read request sizes (log2)
system.mem_ctrls.readPktSize::4                     0                       # Read request sizes (log2)
system.mem_ctrls.readPktSize::5                     0                       # Read request sizes (log2)
system.mem_ctrls.readPktSize::6                 18430                       # Read request sizes (log2)
system.mem_ctrls.writePktSize::0                    0                       # Write request sizes (log2)
system.mem_ctrls.writePktSize::1                    0                       # Write request sizes (log2)
system.mem_ctrls.writePktSize::2                    0                       # Write request sizes (log2)
system.mem_ctrls.writePktSize::3                    0                       # Write request sizes (log2)
system.mem_ctrls.writePktSize::4                    0                       # Write request sizes (log2)
system.mem_ctrls.writePktSize::5                    0                       # Write request sizes (log2)
system.mem_ctrls.writePktSize::6                    0                       # Write request sizes (log2)
system.mem_ctrls.rdQLenPdf::0                   17335                       # What read queue length does an incoming req see
system.mem_ctrls.rdQLenPdf::1                     804                       # What read queue length does an incoming req see
system.mem_ctrls.rdQLenPdf::2                     234                       # What read queue length does an incoming req see
system.mem_ctrls.rdQLenPdf::3                      48                       # What read queue length does an incoming req see
system.mem_ctrls.rdQLenPdf::4                       7                       # What read queue length does an incoming req see
system.mem_ctrls.rdQLenPdf::5                       2                       # What read queue length does an incoming req see
system.mem_ctrls.rdQLenPdf::6                       0                       # What read queue length does an incoming req see
system.mem_ctrls.rdQLenPdf::7                       0                       # What read queue length does an incoming req see
system.mem_ctrls.rdQLenPdf::8                       0                       # What read queue length does an incoming req see
system.mem_ctrls.rdQLenPdf::9                       0                       # What read queue length does an incoming req see
system.mem_ctrls.rdQLenPdf::10                      0                       # What read queue length does an incoming req see
system.mem_ctrls.rdQLenPdf::11                      0                       # What read queue length does an incoming req see
system.mem_ctrls.rdQLenPdf::12                      0                       # What read queue length does an incoming req see
system.mem_ctrls.rdQLenPdf::13                      0                       # What read queue length does an incoming req see
system.mem_ctrls.rdQLenPdf::14                      0                       # What read queue length does an incoming req see
system.mem_ctrls.rdQLenPdf::15                      0                       # What read queue length does an incoming req see
system.mem_ctrls.rdQLenPdf::16                      0                       # What read queue length does an incoming req see
system.mem_ctrls.rdQLenPdf::17                      0                       # What read queue length does an incoming req see
system.mem_ctrls.rdQLenPdf::18                      0                       # What read queue length does an incoming req see
system.mem_ctrls.rdQLenPdf::19                      0                       # What read queue length does an incoming req see
system.mem_ctrls.rdQLenPdf::20                      0                       # What read queue length does an incoming req see
system.mem_ctrls.rdQLenPdf::21                      0                       # What read queue length does an incoming req see
system.mem_ctrls.rdQLenPdf::22                      0                       # What read queue length does an incoming req see
system.mem_ctrls.rdQLenPdf::23                      0                       # What read queue length does an incoming req see
system.mem_ctrls.rdQLenPdf::24                      0                       # What read queue length does an incoming req see
system.mem_ctrls.rdQLenPdf::25                      0                       # What read queue length does an incoming req see
system.mem_ctrls.rdQLenPdf::26                      0                       # What read queue length does an incoming req see
system.mem_ctrls.rdQLenPdf::27                      0                       # What read queue length does an incoming req see
system.mem_ctrls.rdQLenPdf::28                      0                       # What read queue length does an incoming req see
system.mem_ctrls.rdQLenPdf::29                      0                       # What read queue length does an incoming req see
system.mem_ctrls.rdQLenPdf::30                      0                       # What read queue length does an incoming req see
system.mem_ctrls.rdQLenPdf::31                      0                       # What read queue length does an incoming req see
system.mem_ctrls.wrQLenPdf::0                       0                       # What write queue length does an incoming req see
system.mem_ctrls.wrQLenPdf::1                       0                       # What write queue length does an incoming req see
system.mem_ctrls.wrQLenPdf::2                       0                       # What write queue length does an incoming req see
system.mem_ctrls.wrQLenPdf::3                       0                       # What write queue length does an incoming req see
system.mem_ctrls.wrQLenPdf::4                       0                       # What write queue length does an incoming req see
system.mem_ctrls.wrQLenPdf::5                       0                       # What write queue length does an incoming req see
system.mem_ctrls.wrQLenPdf::6                       0                       # What write queue length does an incoming req see
system.mem_ctrls.wrQLenPdf::7                       0                       # What write queue length does an incoming req see
system.mem_ctrls.wrQLenPdf::8                       0                       # What write queue length does an incoming req see
system.mem_ctrls.wrQLenPdf::9                       0                       # What write queue length does an incoming req see
system.mem_ctrls.wrQLenPdf::10                      0                       # What write queue length does an incoming req see
system.mem_ctrls.wrQLenPdf::11                      0                       # What write queue length does an incoming req see
system.mem_ctrls.wrQLenPdf::12                      0                       # What write queue length does an incoming req see
system.mem_ctrls.wrQLenPdf::13                      0                       # What write queue length does an incoming req see
system.mem_ctrls.wrQLenPdf::14                      0                       # What write queue length does an incoming req see
system.mem_ctrls.wrQLenPdf::15                      0                       # What write queue length does an incoming req see
system.mem_ctrls.wrQLenPdf::16                      0                       # What write queue length does an incoming req see
system.mem_ctrls.wrQLenPdf::17                      0                       # What write queue length does an incoming req see
system.mem_ctrls.wrQLenPdf::18                      0                       # What write queue length does an incoming req see
system.mem_ctrls.wrQLenPdf::19                      0                       # What write queue length does an incoming req see
system.mem_ctrls.wrQLenPdf::20                      0                       # What write queue length does an incoming req see
system.mem_ctrls.wrQLenPdf::21                      0                       # What write queue length does an incoming req see
system.mem_ctrls.wrQLenPdf::22                      0                       # What write queue length does an incoming req see
system.mem_ctrls.wrQLenPdf::23                      0                       # What write queue length does an incoming req see
system.mem_ctrls.wrQLenPdf::24                      0                       # What write queue length does an incoming req see
system.mem_ctrls.wrQLenPdf::25                      0                       # What write queue length does an incoming req see
system.mem_ctrls.wrQLenPdf::26                      0                       # What write queue length does an incoming req see
system.mem_ctrls.wrQLenPdf::27                      0                       # What write queue length does an incoming req see
system.mem_ctrls.wrQLenPdf::28                      0                       # What write queue length does an incoming req see
system.mem_ctrls.wrQLenPdf::29                      0                       # What write queue length does an incoming req see
system.mem_ctrls.wrQLenPdf::30                      0                       # What write queue length does an incoming req see
system.mem_ctrls.wrQLenPdf::31                      0                       # What write queue length does an incoming req see
system.mem_ctrls.wrQLenPdf::32                      0                       # What write queue length does an incoming req see
system.mem_ctrls.wrQLenPdf::33                      0                       # What write queue length does an incoming req see
system.mem_ctrls.wrQLenPdf::34                      0                       # What write queue length does an incoming req see
system.mem_ctrls.wrQLenPdf::35                      0                       # What write queue length does an incoming req see
system.mem_ctrls.wrQLenPdf::36                      0                       # What write queue length does an incoming req see
system.mem_ctrls.wrQLenPdf::37                      0                       # What write queue length does an incoming req see
system.mem_ctrls.wrQLenPdf::38                      0                       # What write queue length does an incoming req see
system.mem_ctrls.wrQLenPdf::39                      0                       # What write queue length does an incoming req see
system.mem_ctrls.wrQLenPdf::40                      0                       # What write queue length does an incoming req see
system.mem_ctrls.wrQLenPdf::41                      0                       # What write queue length does an incoming req see
system.mem_ctrls.wrQLenPdf::42                      0                       # What write queue length does an incoming req see
system.mem_ctrls.wrQLenPdf::43                      0                       # What write queue length does an incoming req see
system.mem_ctrls.wrQLenPdf::44                      0                       # What write queue length does an incoming req see
system.mem_ctrls.wrQLenPdf::45                      0                       # What write queue length does an incoming req see
system.mem_ctrls.wrQLenPdf::46                      0                       # What write queue length does an incoming req see
system.mem_ctrls.wrQLenPdf::47                      0                       # What write queue length does an incoming req see
system.mem_ctrls.wrQLenPdf::48                      0                       # What write queue length does an incoming req see
system.mem_ctrls.wrQLenPdf::49                      0                       # What write queue length does an incoming req see
system.mem_ctrls.wrQLenPdf::50                      0                       # What write queue length does an incoming req see
system.mem_ctrls.wrQLenPdf::51                      0                       # What write queue length does an incoming req see
system.mem_ctrls.wrQLenPdf::52                      0                       # What write queue length does an incoming req see
system.mem_ctrls.wrQLenPdf::53                      0                       # What write queue length does an incoming req see
system.mem_ctrls.wrQLenPdf::54                      0                       # What write queue length does an incoming req see
system.mem_ctrls.wrQLenPdf::55                      0                       # What write queue length does an incoming req see
system.mem_ctrls.wrQLenPdf::56                      0                       # What write queue length does an incoming req see
system.mem_ctrls.wrQLenPdf::57                      0                       # What write queue length does an incoming req see
system.mem_ctrls.wrQLenPdf::58                      0                       # What write queue length does an incoming req see
system.mem_ctrls.wrQLenPdf::59                      0                       # What write queue length does an incoming req see
system.mem_ctrls.wrQLenPdf::60                      0                       # What write queue length does an incoming req see
system.mem_ctrls.wrQLenPdf::61                      0                       # What write queue length does an incoming req see
system.mem_ctrls.wrQLenPdf::62                      0                       # What write queue length does an incoming req see
system.mem_ctrls.wrQLenPdf::63                      0                       # What write queue length does an incoming req see
system.mem_ctrls.bytesPerActivate::samples         1898                       # Bytes accessed per row activation
system.mem_ctrls.bytesPerActivate::mean    620.206533                       # Bytes accessed per row activation
system.mem_ctrls.bytesPerActivate::gmean   424.304707                       # Bytes accessed per row activation
system.mem_ctrls.bytesPerActivate::stdev   389.370165                       # Bytes accessed per row activation
system.mem_ctrls.bytesPerActivate::0-127          323     17.02%     17.02% # Bytes accessed per row activation
system.mem_ctrls.bytesPerActivate::128-255          195     10.27%     27.29% # Bytes accessed per row activation
system.mem_ctrls.bytesPerActivate::256-383           86      4.53%     31.82% # Bytes accessed per row activation
system.mem_ctrls.bytesPerActivate::384-511           83      4.37%     36.20% # Bytes accessed per row activation
system.mem_ctrls.bytesPerActivate::512-639          254     13.38%     49.58% # Bytes accessed per row activation
system.mem_ctrls.bytesPerActivate::640-767           81      4.27%     53.85% # Bytes accessed per row activation
system.mem_ctrls.bytesPerActivate::768-895           82      4.32%     58.17% # Bytes accessed per row activation
system.mem_ctrls.bytesPerActivate::896-1023           29      1.53%     59.69% # Bytes accessed per row activation
system.mem_ctrls.bytesPerActivate::1024-1151          765     40.31%    100.00% # Bytes accessed per row activation
system.mem_ctrls.bytesPerActivate::total         1898                       # Bytes accessed per row activation
system.mem_ctrls.masterReadBytes::.cpu.inst       130624                       # Per-master bytes read from memory
system.mem_ctrls.masterReadBytes::.cpu.data      1048896                       # Per-master bytes read from memory
system.mem_ctrls.masterReadRate::.cpu.inst 11068716.132646983489                       # Per-master bytes read from memory rate (Bytes/sec)
system.mem_ctrls.masterReadRate::.cpu.data 88880543.213107019663                       # Per-master bytes read from memory rate (Bytes/sec)
system.mem_ctrls.masterReadAccesses::.cpu.inst         2041                       # Per-master read serviced memory accesses
system.mem_ctrls.masterReadAccesses::.cpu.data        16389                       # Per-master read serviced memory accesses
system.mem_ctrls.masterReadTotalLat::.cpu.inst     87270750                       # Per-master read total memory access latency
system.mem_ctrls.masterReadTotalLat::.cpu.data    516029000                       # Per-master read total memory access latency
system.mem_ctrls.masterReadAvgLat::.cpu.inst     42758.82                       # Per-master read average memory access latency
system.mem_ctrls.masterReadAvgLat::.cpu.data     31486.30                       # Per-master read average memory access latency
system.mem_ctrls.totQLat                    257737250                       # Total ticks spent queuing
system.mem_ctrls.totMemAccLat               603299750                       # Total ticks spent from burst creation until serviced by the DRAM
system.mem_ctrls.totBusLat                   92150000                       # Total ticks spent in databus transfers
system.mem_ctrls.avgQLat                     13984.66                       # Average queueing delay per DRAM burst
system.mem_ctrls.avgBusLat                    5000.00                       # Average bus latency per DRAM burst
system.mem_ctrls.avgMemAccLat                32734.66                       # Average memory access latency per DRAM burst
system.mem_ctrls.avgRdBW                        99.95                       # Average DRAM read bandwidth in MiByte/s
system.mem_ctrls.avgWrBW                         0.00                       # Average achieved write bandwidth in MiByte/s
system.mem_ctrls.avgRdBWSys                     99.95                       # Average system read bandwidth in MiByte/s
system.mem_ctrls.avgWrBWSys                      0.00                       # Average system write bandwidth in MiByte/s
system.mem_ctrls.peakBW                      12800.00                       # Theoretical peak bandwidth in MiByte/s
system.mem_ctrls.busUtil                         0.78                       # Data bus utilization in percentage
system.mem_ctrls.busUtilRead                     0.78                       # Data bus utilization in percentage for reads
system.mem_ctrls.busUtilWrite                    0.00                       # Data bus utilization in percentage for writes
system.mem_ctrls.avgRdQLen                       1.09                       # Average read queue length when enqueuing
system.mem_ctrls.avgWrQLen                       0.00                       # Average write queue length when enqueuing
system.mem_ctrls.readRowHits                    16522                       # Number of row buffer hits during reads
system.mem_ctrls.writeRowHits                       0                       # Number of row buffer hits during writes
system.mem_ctrls.readRowHitRate                 89.65                       # Row buffer hit rate for reads
system.mem_ctrls.writeRowHitRate                  nan                       # Row buffer hit rate for writes
system.mem_ctrls.avgGap                     640320.35                       # Average gap between requests
system.mem_ctrls.pageHitRate                    89.65                       # Row buffer hit rate, read and write combined
system.mem_ctrls_0.actEnergy                  7739760                       # Energy for activate commands per rank (pJ)
system.mem_ctrls_0.preEnergy                  4091010                       # Energy for precharge commands per rank (pJ)
system.mem_ctrls_0.readEnergy                67929960                       # Energy for read commands per rank (pJ)
system.mem_ctrls_0.writeEnergy                      0                       # Energy for write commands per rank (pJ)
system.mem_ctrls_0.refreshEnergy         198528720.000000                       # Energy for refresh commands per rank (pJ)
system.mem_ctrls_0.actBackEnergy            148160670                       # Energy for active background per rank (pJ)
system.mem_ctrls_0.preBackEnergy             10507680                       # Energy for precharge background per rank (pJ)
system.mem_ctrls_0.actPowerDownEnergy       816330060                       # Energy for active power-down per rank (pJ)
system.mem_ctrls_0.prePowerDownEnergy       149996160                       # Energy for precharge power-down per rank (pJ)
system.mem_ctrls_0.selfRefreshEnergy       2247537780                       # Energy for self refresh per rank (pJ)
system.mem_ctrls_0.totalEnergy             3650821800                       # Total energy per rank (pJ)
system.mem_ctrls_0.averagePower            309.360532                       # Core power per rank (mW)
system.mem_ctrls_0.totalIdleTime          11448626250                       # Total Idle time Per DRAM Rank
system.mem_ctrls_0.memoryStateTime::IDLE     14813500                       # Time in different power states
system.mem_ctrls_0.memoryStateTime::REF      83980000                       # Time in different power states
system.mem_ctrls_0.memoryStateTime::SREF   9268101000                       # Time in different power states
system.mem_ctrls_0.memoryStateTime::PRE_PDN    390616250                       # Time in different power states
system.mem_ctrls_0.memoryStateTime::ACT     253494000                       # Time in different power states
system.mem_ctrls_0.memoryStateTime::ACT_PDN   1790183250                       # Time in different power states
system.mem_ctrls_1.actEnergy                  5883360                       # Energy for activate commands per rank (pJ)
system.mem_ctrls_1.preEnergy                  3111900                       # Energy for precharge commands per rank (pJ)
system.mem_ctrls_1.readEnergy                63660240                       # Energy for read commands per rank (pJ)
system.mem_ctrls_1.writeEnergy                      0                       # Energy for write commands per rank (pJ)
system.mem_ctrls_1.refreshEnergy         173328480.000000                       # Energy for refresh commands per rank (pJ)
system.mem_ctrls_1.actBackEnergy            136406130                       # Energy for active background per rank (pJ)
system.mem_ctrls_1.preBackEnergy              7777920                       # Energy for precharge background per rank (pJ)
system.mem_ctrls_1.actPowerDownEnergy       767922810                       # Energy for active power-down per rank (pJ)
system.mem_ctrls_1.prePowerDownEnergy        77646720                       # Energy for precharge power-down per rank (pJ)
system.mem_ctrls_1.selfRefreshEnergy       2312320380                       # Energy for self refresh per rank (pJ)
system.mem_ctrls_1.totalEnergy             3548057940                       # Total energy per rank (pJ)
system.mem_ctrls_1.averagePower            300.652607                       # Core power per rank (mW)
system.mem_ctrls_1.totalIdleTime          11481724250                       # Total Idle time Per DRAM Rank
system.mem_ctrls_1.memoryStateTime::IDLE      8055500                       # Time in different power states
system.mem_ctrls_1.memoryStateTime::REF      73320000                       # Time in different power states
system.mem_ctrls_1.memoryStateTime::SREF   9595550750                       # Time in different power states
system.mem_ctrls_1.memoryStateTime::PRE_PDN    202204750                       # Time in different power states
system.mem_ctrls_1.memoryStateTime::ACT     238040500                       # Time in different power states
system.mem_ctrls_1.memoryStateTime::ACT_PDN   1684016500                       # Time in different power states
system.pwrStateResidencyTicks::UNDEFINED  11801188000                       # Cumulative time (in ticks) in various power states
system.cpu.branchPred.lookups                 8291302                       # Number of BP lookups
system.cpu.branchPred.condPredicted           8291302                       # Number of conditional branches predicted
system.cpu.branchPred.condIncorrect            315832                       # Number of conditional branches incorrect
system.cpu.branchPred.BTBLookups              4991812                       # Number of BTB lookups
system.cpu.branchPred.BTBHits                       0                       # Number of BTB hits
system.cpu.branchPred.BTBCorrect                    0                       # Number of correct BTB predictions (this stat may not work properly.
system.cpu.branchPred.BTBHitPct              0.000000                       # BTB Hit Percentage
system.cpu.branchPred.usedRAS                  726076                       # Number of times the RAS was used to get a target.
system.cpu.branchPred.RASInCorrect              17694                       # Number of incorrect RAS predictions.
system.cpu.branchPred.indirectLookups         4991812                       # Number of indirect predictor lookups.
system.cpu.branchPred.indirectHits            4841508                       # Number of indirect target hits.
system.cpu.branchPred.indirectMisses           150304                       # Number of indirect misses.
system.cpu.branchPredindirectMispredicted       102150                       # Number of mispredicted indirect branches.
system.cpu_voltage_domain.voltage                   1                       # Voltage in Volts
system.cpu_clk_domain.clock                       500                       # Clock period in ticks
system.cpu.dtb.walker.pwrStateResidencyTicks::UNDEFINED  11801188000                       # Cumulative time (in ticks) in various power states
system.cpu.dtb.rdAccesses                    14325770                       # TLB accesses on read requests
system.cpu.dtb.wrAccesses                     5627913                       # TLB accesses on write requests
system.cpu.dtb.rdMisses                         28933                       # TLB misses on read requests
system.cpu.dtb.wrMisses                          4655                       # TLB misses on write requests
system.cpu.apic_clk_domain.clock                 8000                       # Clock period in ticks
system.cpu.interrupts.pwrStateResidencyTicks::UNDEFINED  11801188000                       # Cumulative time (in ticks) in various power states
system.cpu.itb.walker.pwrStateResidencyTicks::UNDEFINED  11801188000                       # Cumulative time (in ticks) in various power states
system.cpu.itb.rdAccesses                           0                       # TLB accesses on read requests
system.cpu.itb.wrAccesses                     5480733                       # TLB accesses on write requests
system.cpu.itb.rdMisses                             0                       # TLB misses on read requests
system.cpu.itb.wrMisses                          1657                       # TLB misses on write requests
system.cpu.workload.numSyscalls                    28                       # Number of system calls
system.cpu.pwrStateResidencyTicks::ON     11801188000                       # Cumulative time (in ticks) in various power states
system.cpu.numCycles                         23602377                       # number of cpu cycles simulated
system.cpu.numWorkItemsStarted                      0                       # number of work items this cpu started
system.cpu.numWorkItemsCompleted                    0                       # number of work items this cpu completed
system.cpu.fetch.icacheStallCycles            5697305                       # Number of cycles fetch is stalled on an Icache miss
system.cpu.fetch.Insts                       45676432                       # Number of instructions fetch has processed
system.cpu.fetch.Branches                     8291302                       # Number of branches that fetch encountered
system.cpu.fetch.predictedBranches            5567584                       # Number of branches that fetch has predicted taken
system.cpu.fetch.Cycles                      17443181                       # Number of cycles fetch has run and was not squashing or blocked
system.cpu.fetch.SquashCycles                  635180                       # Number of cycles fetch has spent squashing
system.cpu.fetch.MiscStallCycles                  937                       # Number of cycles fetch has spent waiting on interrupts, or bad addresses, or out of MSHRs
system.cpu.fetch.PendingTrapStallCycles          8113                       # Number of stall cycles due to pending traps
system.cpu.fetch.PendingQuiesceStallCycles           12                       # Number of stall cycles due to pending quiesce instructions
system.cpu.fetch.IcacheWaitRetryStallCycles          743                       # Number of stall cycles due to full MSHR
system.cpu.fetch.CacheLines                   5479244                       # Number of cache lines fetched
system.cpu.fetch.IcacheSquashes                 79237                       # Number of outstanding Icache misses that were squashed
system.cpu.fetch.rateDist::samples           23467881                       # Number of instructions fetched each cycle (Total)
system.cpu.fetch.rateDist::mean              3.394483                       # Number of instructions fetched each cycle (Total)
system.cpu.fetch.rateDist::stdev             3.445785                       # Number of instructions fetched each cycle (Total)
system.cpu.fetch.rateDist::underflows               0      0.00%      0.00% # Number of instructions fetched each cycle (Total)
system.cpu.fetch.rateDist::0                  9977584     42.52%     42.52% # Number of instructions fetched each cycle (Total)
system.cpu.fetch.rateDist::1                   792508      3.38%     45.89% # Number of instructions fetched each cycle (Total)
system.cpu.fetch.rateDist::2                  1167669      4.98%     50.87% # Number of instructions fetched each cycle (Total)
system.cpu.fetch.rateDist::3                   770859      3.28%     54.15% # Number of instructions fetched each cycle (Total)
system.cpu.fetch.rateDist::4                  1284992      5.48%     59.63% # Number of instructions fetched each cycle (Total)
system.cpu.fetch.rateDist::5                  1512256      6.44%     66.07% # Number of instructions fetched each cycle (Total)
system.cpu.fetch.rateDist::6                   682075      2.91%     68.98% # Number of instructions fetched each cycle (Total)
system.cpu.fetch.rateDist::7                   812302      3.46%     72.44% # Number of instructions fetched each cycle (Total)
system.cpu.fetch.rateDist::8                  6467636     27.56%    100.00% # Number of instructions fetched each cycle (Total)
system.cpu.fetch.rateDist::overflows                0      0.00%    100.00% # Number of instructions fetched each cycle (Total)
system.cpu.fetch.rateDist::min_value                0                       # Number of instructions fetched each cycle (Total)
system.cpu.fetch.rateDist::max_value                8                       # Number of instructions fetched each cycle (Total)
system.cpu.fetch.rateDist::total             23467881                       # Number of instructions fetched each cycle (Total)
system.cpu.fetch.branchRate                  0.351291                       # Number of branch fetches per cycle
system.cpu.fetch.rate                        1.935247                       # Number of inst fetches per cycle
system.cpu.decode.IdleCycles                  4841125                       # Number of cycles decode is idle
system.cpu.decode.BlockedCycles               6214254                       # Number of cycles decode is blocked
system.cpu.decode.RunCycles                  10951435                       # Number of cycles decode is running
system.cpu.decode.UnblockCycles               1143477                       # Number of cycles decode is unblocking
system.cpu.decode.SquashCycles                 317590                       # Number of cycles decode is squashing
system.cpu.decode.DecodedInsts               77229954                       # Number of instructions handled by decode
system.cpu.rename.SquashCycles                 317590                       # Number of cycles rename is squashing
system.cpu.rename.IdleCycles                  5404283                       # Number of cycles rename is idle
system.cpu.rename.BlockCycles                 2077983                       # Number of cycles rename is blocking
system.cpu.rename.serializeStallCycles           2396                       # count of cycles rename stalled for serializing inst
system.cpu.rename.RunCycles                  11446998                       # Number of cycles rename is running
system.cpu.rename.UnblockCycles               4218631                       # Number of cycles rename is unblocking
system.cpu.rename.RenamedInsts               75721821                       # Number of instructions processed by rename
system.cpu.rename.ROBFullEvents                  3402                       # Number of times rename has blocked due to ROB full
system.cpu.rename.IQFullEvents                 862779                       # Number of times rename has blocked due to IQ full
system.cpu.rename.LQFullEvents                 912615                       # Number of times rename has blocked due to LQ full
system.cpu.rename.SQFullEvents                2186215                       # Number of times rename has blocked due to SQ full
system.cpu.rename.RenamedOperands            85090258                       # Number of destination operands rename has renamed
system.cpu.rename.RenameLookups             196892111                       # Number of register rename lookups that rename has made
system.cpu.rename.int_rename_lookups        123227805                       # Number of integer rename lookups
system.cpu.rename.fp_rename_lookups           1312383                       # Number of floating rename lookups
system.cpu.rename.CommittedMaps              68952287                       # Number of HB maps that are committed
system.cpu.rename.UndoneMaps                 16137971                       # Number of HB maps that are undone due to squashing
system.cpu.rename.serializingInsts                 99                       # count of serializing insts renamed
system.cpu.rename.tempSerializingInsts             97                       # count of temporary serializing insts renamed
system.cpu.rename.skidInsts                   5378222                       # count of insts added to the skid buffer
system.cpu.memDep0.insertedLoads             15012779                       # Number of loads inserted to the mem dependence unit.
system.cpu.memDep0.insertedStores             5961923                       # Number of stores inserted to the mem dependence unit.
system.cpu.memDep0.conflictingLoads           4600773                       # Number of conflicting loads.
system.cpu.memDep0.conflictingStores           876147                       # Number of conflicting stores.
system.cpu.iq.iqInstsAdded                   72944937                       # Number of instructions added to the IQ (excludes non-spec)
system.cpu.iq.iqNonSpecInstsAdded                2035                       # Number of non-speculative instructions added to the IQ
system.cpu.iq.iqInstsIssued                  69460736                       # Number of instructions issued
system.cpu.iq.iqSquashedInstsIssued             63404                       # Number of squashed instructions issued
system.cpu.iq.iqSquashedInstsExamined        11957970                       # Number of squashed instructions iterated over during squash; mainly for profiling
system.cpu.iq.iqSquashedOperandsExamined     14829272                       # Number of squashed operands that are examined and possibly removed from graph
system.cpu.iq.iqSquashedNonSpecRemoved           1874                       # Number of squashed non-spec instructions that were removed
system.cpu.iq.issued_per_cycle::samples      23467881                       # Number of insts issued each cycle
system.cpu.iq.issued_per_cycle::mean         2.959821                       # Number of insts issued each cycle
system.cpu.iq.issued_per_cycle::stdev        2.319527                       # Number of insts issued each cycle
system.cpu.iq.issued_per_cycle::underflows            0      0.00%      0.00% # Number of insts issued each cycle
system.cpu.iq.issued_per_cycle::0             5455692     23.25%     23.25% # Number of insts issued each cycle
system.cpu.iq.issued_per_cycle::1             2359657     10.05%     33.30% # Number of insts issued each cycle
system.cpu.iq.issued_per_cycle::2             2637582     11.24%     44.54% # Number of insts issued each cycle
system.cpu.iq.issued_per_cycle::3             2934506     12.50%     57.05% # Number of insts issued each cycle
system.cpu.iq.issued_per_cycle::4             3355050     14.30%     71.34% # Number of insts issued each cycle
system.cpu.iq.issued_per_cycle::5             2748015     11.71%     83.05% # Number of insts issued each cycle
system.cpu.iq.issued_per_cycle::6             2476512     10.55%     93.60% # Number of insts issued each cycle
system.cpu.iq.issued_per_cycle::7             1003886      4.28%     97.88% # Number of insts issued each cycle
system.cpu.iq.issued_per_cycle::8              496981      2.12%    100.00% # Number of insts issued each cycle
system.cpu.iq.issued_per_cycle::overflows            0      0.00%    100.00% # Number of insts issued each cycle
system.cpu.iq.issued_per_cycle::min_value            0                       # Number of insts issued each cycle
system.cpu.iq.issued_per_cycle::max_value            8                       # Number of insts issued each cycle
system.cpu.iq.issued_per_cycle::total        23467881                       # Number of insts issued each cycle
system.cpu.iq.fu_full::No_OpClass                   0      0.00%      0.00% # attempts to use FU when none available
system.cpu.iq.fu_full::IntAlu                  830521     71.10%     71.10% # attempts to use FU when none available
system.cpu.iq.fu_full::IntMult                      0      0.00%     71.10% # attempts to use FU when none available
system.cpu.iq.fu_full::IntDiv                       0      0.00%     71.10% # attempts to use FU when none available
system.cpu.iq.fu_full::FloatAdd                     0      0.00%     71.10% # attempts to use FU when none available
system.cpu.iq.fu_full::FloatCmp                     0      0.00%     71.10% # attempts to use FU when none available
system.cpu.iq.fu_full::FloatCvt                     0      0.00%     71.10% # attempts to use FU when none available
system.cpu.iq.fu_full::FloatMult                    0      0.00%     71.10% # attempts to use FU when none available
system.cpu.iq.fu_full::FloatMultAcc                 0      0.00%     71.10% # attempts to use FU when none available
system.cpu.iq.fu_full::FloatDiv                     0      0.00%     71.10% # attempts to use FU when none available
system.cpu.iq.fu_full::FloatMisc                    0      0.00%     71.10% # attempts to use FU when none available
system.cpu.iq.fu_full::FloatSqrt                    0      0.00%     71.10% # attempts to use FU when none available
system.cpu.iq.fu_full::SimdAdd                      0      0.00%     71.10% # attempts to use FU when none available
system.cpu.iq.fu_full::SimdAddAcc                   0      0.00%     71.10% # attempts to use FU when none available
system.cpu.iq.fu_full::SimdAlu                   8272      0.71%     71.81% # attempts to use FU when none available
system.cpu.iq.fu_full::SimdCmp                      0      0.00%     71.81% # attempts to use FU when none available
system.cpu.iq.fu_full::SimdCvt                     77      0.01%     71.81% # attempts to use FU when none available
system.cpu.iq.fu_full::SimdMisc                 15816      1.35%     73.17% # attempts to use FU when none available
system.cpu.iq.fu_full::SimdMult                     0      0.00%     73.17% # attempts to use FU when none available
system.cpu.iq.fu_full::SimdMultAcc                  0      0.00%     73.17% # attempts to use FU when none available
system.cpu.iq.fu_full::SimdShift                    0      0.00%     73.17% # attempts to use FU when none available
system.cpu.iq.fu_full::SimdShiftAcc                 0      0.00%     73.17% # attempts to use FU when none available
system.cpu.iq.fu_full::SimdSqrt                     0      0.00%     73.17% # attempts to use FU when none available
system.cpu.iq.fu_full::SimdFloatAdd                 0      0.00%     73.17% # attempts to use FU when none available
system.cpu.iq.fu_full::SimdFloatAlu                 0      0.00%     73.17% # attempts to use FU when none available
system.cpu.iq.fu_full::SimdFloatCmp                 0      0.00%     73.17% # attempts to use FU when none available
system.cpu.iq.fu_full::SimdFloatCvt                 0      0.00%     73.17% # attempts to use FU when none available
system.cpu.iq.fu_full::SimdFloatDiv                 0      0.00%     73.17% # attempts to use FU when none available
system.cpu.iq.fu_full::SimdFloatMisc                0      0.00%     73.17% # attempts to use FU when none available
system.cpu.iq.fu_full::SimdFloatMult                0      0.00%     73.17% # attempts to use FU when none available
system.cpu.iq.fu_full::SimdFloatMultAcc             0      0.00%     73.17% # attempts to use FU when none available
system.cpu.iq.fu_full::SimdFloatSqrt                0      0.00%     73.17% # attempts to use FU when none available
system.cpu.iq.fu_full::SimdAes                      0      0.00%     73.17% # attempts to use FU when none available
system.cpu.iq.fu_full::SimdAesMix                   0      0.00%     73.17% # attempts to use FU when none available
system.cpu.iq.fu_full::SimdSha1Hash                 0      0.00%     73.17% # attempts to use FU when none available
system.cpu.iq.fu_full::SimdSha1Hash2                0      0.00%     73.17% # attempts to use FU when none available
system.cpu.iq.fu_full::SimdSha256Hash               0      0.00%     73.17% # attempts to use FU when none available
system.cpu.iq.fu_full::SimdSha256Hash2              0      0.00%     73.17% # attempts to use FU when none available
system.cpu.iq.fu_full::SimdShaSigma2                0      0.00%     73.17% # attempts to use FU when none available
system.cpu.iq.fu_full::SimdShaSigma3                0      0.00%     73.17% # attempts to use FU when none available
system.cpu.iq.fu_full::MemRead                 267158     22.87%     96.04% # attempts to use FU when none available
system.cpu.iq.fu_full::MemWrite                 38006      3.25%     99.29% # attempts to use FU when none available
system.cpu.iq.fu_full::FloatMemRead              8236      0.71%    100.00% # attempts to use FU when none available
system.cpu.iq.fu_full::FloatMemWrite               28      0.00%    100.00% # attempts to use FU when none available
system.cpu.iq.fu_full::IprAccess                    0      0.00%    100.00% # attempts to use FU when none available
system.cpu.iq.fu_full::InstPrefetch                 0      0.00%    100.00% # attempts to use FU when none available
system.cpu.iq.FU_type_0::No_OpClass            189790      0.27%      0.27% # Type of FU issued
system.cpu.iq.FU_type_0::IntAlu              48168866     69.35%     69.62% # Type of FU issued
system.cpu.iq.FU_type_0::IntMult                80998      0.12%     69.74% # Type of FU issued
system.cpu.iq.FU_type_0::IntDiv                312624      0.45%     70.19% # Type of FU issued
system.cpu.iq.FU_type_0::FloatAdd                  47      0.00%     70.19% # Type of FU issued
system.cpu.iq.FU_type_0::FloatCmp                   0      0.00%     70.19% # Type of FU issued
system.cpu.iq.FU_type_0::FloatCvt                   0      0.00%     70.19% # Type of FU issued
system.cpu.iq.FU_type_0::FloatMult                  0      0.00%     70.19% # Type of FU issued
system.cpu.iq.FU_type_0::FloatMultAcc               0      0.00%     70.19% # Type of FU issued
system.cpu.iq.FU_type_0::FloatDiv                   0      0.00%     70.19% # Type of FU issued
system.cpu.iq.FU_type_0::FloatMisc                  0      0.00%     70.19% # Type of FU issued
system.cpu.iq.FU_type_0::FloatSqrt                  0      0.00%     70.19% # Type of FU issued
system.cpu.iq.FU_type_0::SimdAdd                  430      0.00%     70.19% # Type of FU issued
system.cpu.iq.FU_type_0::SimdAddAcc                 0      0.00%     70.19% # Type of FU issued
system.cpu.iq.FU_type_0::SimdAlu                68674      0.10%     70.29% # Type of FU issued
system.cpu.iq.FU_type_0::SimdCmp                    0      0.00%     70.29% # Type of FU issued
system.cpu.iq.FU_type_0::SimdCvt                65934      0.09%     70.38% # Type of FU issued
system.cpu.iq.FU_type_0::SimdMisc               66039      0.10%     70.48% # Type of FU issued
system.cpu.iq.FU_type_0::SimdMult                   0      0.00%     70.48% # Type of FU issued
system.cpu.iq.FU_type_0::SimdMultAcc                0      0.00%     70.48% # Type of FU issued
system.cpu.iq.FU_type_0::SimdShift                198      0.00%     70.48% # Type of FU issued
system.cpu.iq.FU_type_0::SimdShiftAcc               0      0.00%     70.48% # Type of FU issued
system.cpu.iq.FU_type_0::SimdSqrt                   0      0.00%     70.48% # Type of FU issued
system.cpu.iq.FU_type_0::SimdFloatAdd            8199      0.01%     70.49% # Type of FU issued
system.cpu.iq.FU_type_0::SimdFloatAlu               0      0.00%     70.49% # Type of FU issued
system.cpu.iq.FU_type_0::SimdFloatCmp               0      0.00%     70.49% # Type of FU issued
system.cpu.iq.FU_type_0::SimdFloatCvt          316939      0.46%     70.94% # Type of FU issued
system.cpu.iq.FU_type_0::SimdFloatDiv               4      0.00%     70.94% # Type of FU issued
system.cpu.iq.FU_type_0::SimdFloatMisc              0      0.00%     70.94% # Type of FU issued
system.cpu.iq.FU_type_0::SimdFloatMult            122      0.00%     70.94% # Type of FU issued
system.cpu.iq.FU_type_0::SimdFloatMultAcc            0      0.00%     70.94% # Type of FU issued
system.cpu.iq.FU_type_0::SimdFloatSqrt              0      0.00%     70.94% # Type of FU issued
system.cpu.iq.FU_type_0::SimdAes                    0      0.00%     70.94% # Type of FU issued
system.cpu.iq.FU_type_0::SimdAesMix                 0      0.00%     70.94% # Type of FU issued
system.cpu.iq.FU_type_0::SimdSha1Hash               0      0.00%     70.94% # Type of FU issued
system.cpu.iq.FU_type_0::SimdSha1Hash2              0      0.00%     70.94% # Type of FU issued
system.cpu.iq.FU_type_0::SimdSha256Hash             0      0.00%     70.94% # Type of FU issued
system.cpu.iq.FU_type_0::SimdSha256Hash2            0      0.00%     70.94% # Type of FU issued
system.cpu.iq.FU_type_0::SimdShaSigma2              0      0.00%     70.94% # Type of FU issued
system.cpu.iq.FU_type_0::SimdShaSigma3              0      0.00%     70.94% # Type of FU issued
system.cpu.iq.FU_type_0::MemRead             13884292     19.99%     90.93% # Type of FU issued
system.cpu.iq.FU_type_0::MemWrite             5653508      8.14%     99.07% # Type of FU issued
system.cpu.iq.FU_type_0::FloatMemRead          603470      0.87%     99.94% # Type of FU issued
system.cpu.iq.FU_type_0::FloatMemWrite          40602      0.06%    100.00% # Type of FU issued
system.cpu.iq.FU_type_0::IprAccess                  0      0.00%    100.00% # Type of FU issued
system.cpu.iq.FU_type_0::InstPrefetch               0      0.00%    100.00% # Type of FU issued
system.cpu.iq.FU_type_0::total               69460736                       # Type of FU issued
system.cpu.iq.rate                           2.942955                       # Inst issue rate
system.cpu.iq.fu_busy_cnt                     1168114                       # FU busy when requested
system.cpu.iq.fu_busy_rate                   0.016817                       # FU busy rate (busy events/executed inst)
system.cpu.iq.int_inst_queue_reads          161245536                       # Number of integer instruction queue reads
system.cpu.iq.int_inst_queue_writes          83401814                       # Number of integer instruction queue writes
system.cpu.iq.int_inst_queue_wakeup_accesses     67289439                       # Number of integer instruction queue wakeup accesses
system.cpu.iq.fp_inst_queue_reads             2375335                       # Number of floating instruction queue reads
system.cpu.iq.fp_inst_queue_writes            1504586                       # Number of floating instruction queue writes
system.cpu.iq.fp_inst_queue_wakeup_accesses      1114968                       # Number of floating instruction queue wakeup accesses
system.cpu.iq.vec_inst_queue_reads                  0                       # Number of vector instruction queue reads
system.cpu.iq.vec_inst_queue_writes                 0                       # Number of vector instruction queue writes
system.cpu.iq.vec_inst_queue_wakeup_accesses            0                       # Number of vector instruction queue wakeup accesses
system.cpu.iq.int_alu_accesses               69235409                       # Number of integer alu accesses
system.cpu.iq.fp_alu_accesses                 1203651                       # Number of floating point alu accesses
system.cpu.iq.vec_alu_accesses                      0                       # Number of vector alu accesses
system.cpu.iew.lsq.thread0.forwLoads          6935539                       # Number of loads that had data forwarded from stores
system.cpu.iew.lsq.thread0.invAddrLoads             0                       # Number of loads ignored due to an invalid address
system.cpu.iew.lsq.thread0.squashedLoads      2333625                       # Number of loads squashed
system.cpu.iew.lsq.thread0.ignoredResponses        11876                       # Number of memory responses ignored because the instruction is squashed
system.cpu.iew.lsq.thread0.memOrderViolation         1547                       # Number of memory ordering violations
system.cpu.iew.lsq.thread0.squashedStores       890664                       # Number of stores squashed
system.cpu.iew.lsq.thread0.invAddrSwpfs             0                       # Number of software prefetches ignored due to an invalid address
system.cpu.iew.lsq.thread0.blockedLoads             0                       # Number of blocked loads due to partial load-store forwarding
system.cpu.iew.lsq.thread0.rescheduledLoads        29235                       # Number of loads that were rescheduled
system.cpu.iew.lsq.thread0.cacheBlocked            41                       # Number of times an access to memory failed due to the cache being blocked
system.cpu.iew.iewIdleCycles                        0                       # Number of cycles IEW is idle
system.cpu.iew.iewSquashCycles                 317590                       # Number of cycles IEW is squashing
system.cpu.iew.iewBlockCycles                 1466108                       # Number of cycles IEW is blocking
system.cpu.iew.iewUnblockCycles                147881                       # Number of cycles IEW is unblocking
system.cpu.iew.iewDispatchedInsts            72946972                       # Number of instructions dispatched to IQ
system.cpu.iew.iewDispSquashedInsts             69580                       # Number of squashed instructions skipped by dispatch
system.cpu.iew.iewDispLoadInsts              15012779                       # Number of dispatched load instructions
system.cpu.iew.iewDispStoreInsts              5961923                       # Number of dispatched store instructions
system.cpu.iew.iewDispNonSpecInsts                740                       # Number of dispatched non-speculative instructions
system.cpu.iew.iewIQFullEvents                   4147                       # Number of times the IQ has become full, causing a stall
system.cpu.iew.iewLSQFullEvents                132141                       # Number of times the LSQ has become full, causing a stall
system.cpu.iew.memOrderViolationEvents           1547                       # Number of memory order violations
system.cpu.iew.predictedTakenIncorrect         112810                       # Number of branches that were predicted taken incorrectly
system.cpu.iew.predictedNotTakenIncorrect       285793                       # Number of branches that were predicted not taken incorrectly
system.cpu.iew.branchMispredicts               398603                       # Number of branch mispredicts detected at execute
system.cpu.iew.iewExecutedInsts              68788845                       # Number of executed instructions
system.cpu.iew.iewExecLoadInsts              14325430                       # Number of load instructions executed
system.cpu.iew.iewExecSquashedInsts            671891                       # Number of squashed instructions skipped in execute
system.cpu.iew.exec_swp                             0                       # number of swp insts executed
system.cpu.iew.exec_nop                             0                       # number of nop insts executed
system.cpu.iew.exec_refs                     19952930                       # number of memory reference insts executed
system.cpu.iew.exec_branches                  6870533                       # Number of branches executed
system.cpu.iew.exec_stores                    5627500                       # Number of stores executed
system.cpu.iew.exec_rate                     2.914488                       # Inst execution rate
system.cpu.iew.wb_sent                       68586861                       # cumulative count of insts sent to commit
system.cpu.iew.wb_count                      68404407                       # cumulative count of insts written-back
system.cpu.iew.wb_producers                  51468813                       # num instructions producing a value
system.cpu.iew.wb_consumers                  78284502                       # num instructions consuming a value
system.cpu.iew.wb_rate                       2.898200                       # insts written-back per cycle
system.cpu.iew.wb_fanout                     0.657459                       # average fanout of values written-back
system.cpu.commit.commitSquashedInsts        11958193                       # The number of squashed insts skipped by commit
system.cpu.commit.commitNonSpecStalls             161                       # The number of times commit has been forced to stall to communicate backwards
system.cpu.commit.branchMispredicts            316566                       # The number of times a branch was mispredicted
system.cpu.commit.committed_per_cycle::samples     21771527                       # Number of insts commited each cycle
system.cpu.commit.committed_per_cycle::mean     2.801319                       # Number of insts commited each cycle
system.cpu.commit.committed_per_cycle::stdev     3.009314                       # Number of insts commited each cycle
system.cpu.commit.committed_per_cycle::underflows            0      0.00%      0.00% # Number of insts commited each cycle
system.cpu.commit.committed_per_cycle::0      6872770     31.57%     31.57% # Number of insts commited each cycle
system.cpu.commit.committed_per_cycle::1      3924631     18.03%     49.59% # Number of insts commited each cycle
system.cpu.commit.committed_per_cycle::2      1870913      8.59%     58.19% # Number of insts commited each cycle
system.cpu.commit.committed_per_cycle::3      2691919     12.36%     70.55% # Number of insts commited each cycle
system.cpu.commit.committed_per_cycle::4       693358      3.18%     73.74% # Number of insts commited each cycle
system.cpu.commit.committed_per_cycle::5       611957      2.81%     76.55% # Number of insts commited each cycle
system.cpu.commit.committed_per_cycle::6       357500      1.64%     78.19% # Number of insts commited each cycle
system.cpu.commit.committed_per_cycle::7       719262      3.30%     81.49% # Number of insts commited each cycle
system.cpu.commit.committed_per_cycle::8      4029217     18.51%    100.00% # Number of insts commited each cycle
system.cpu.commit.committed_per_cycle::overflows            0      0.00%    100.00% # Number of insts commited each cycle
system.cpu.commit.committed_per_cycle::min_value            0                       # Number of insts commited each cycle
system.cpu.commit.committed_per_cycle::max_value            8                       # Number of insts commited each cycle
system.cpu.commit.committed_per_cycle::total     21771527                       # Number of insts commited each cycle
system.cpu.commit.committedInsts             35032856                       # Number of instructions committed
system.cpu.commit.committedOps               60989001                       # Number of ops (including micro ops) committed
system.cpu.commit.swp_count                         0                       # Number of s/w prefetches committed
system.cpu.commit.refs                       17750413                       # Number of memory references committed
system.cpu.commit.loads                      12679154                       # Number of loads committed
system.cpu.commit.membars                          80                       # Number of memory barriers committed
system.cpu.commit.branches                    6239241                       # Number of branches committed
system.cpu.commit.vec_insts                         0                       # Number of committed Vector instructions.
system.cpu.commit.fp_insts                    1058594                       # Number of committed floating point instructions.
system.cpu.commit.int_insts                  60407475                       # Number of committed integer instructions.
system.cpu.commit.function_calls               595345                       # Number of function calls committed.
system.cpu.commit.op_class_0::No_OpClass       123289      0.20%      0.20% # Class of committed instruction
system.cpu.commit.op_class_0::IntAlu         42248560     69.27%     69.47% # Class of committed instruction
system.cpu.commit.op_class_0::IntMult           72131      0.12%     69.59% # Class of committed instruction
system.cpu.commit.op_class_0::IntDiv           286505      0.47%     70.06% # Class of committed instruction
system.cpu.commit.op_class_0::FloatAdd             13      0.00%     70.06% # Class of committed instruction
system.cpu.commit.op_class_0::FloatCmp              0      0.00%     70.06% # Class of committed instruction
system.cpu.commit.op_class_0::FloatCvt              0      0.00%     70.06% # Class of committed instruction
system.cpu.commit.op_class_0::FloatMult             0      0.00%     70.06% # Class of committed instruction
system.cpu.commit.op_class_0::FloatMultAcc            0      0.00%     70.06% # Class of committed instruction
system.cpu.commit.op_class_0::FloatDiv              0      0.00%     70.06% # Class of committed instruction
system.cpu.commit.op_class_0::FloatMisc             0      0.00%     70.06% # Class of committed instruction
system.cpu.commit.op_class_0::FloatSqrt             0      0.00%     70.06% # Class of committed instruction
system.cpu.commit.op_class_0::SimdAdd             400      0.00%     70.06% # Class of committed instruction
system.cpu.commit.op_class_0::SimdAddAcc            0      0.00%     70.06% # Class of committed instruction
system.cpu.commit.op_class_0::SimdAlu           66192      0.11%     70.17% # Class of committed instruction
system.cpu.commit.op_class_0::SimdCmp               0      0.00%     70.17% # Class of committed instruction
system.cpu.commit.op_class_0::SimdCvt           65880      0.11%     70.28% # Class of committed instruction
system.cpu.commit.op_class_0::SimdMisc          65990      0.11%     70.39% # Class of committed instruction
system.cpu.commit.op_class_0::SimdMult              0      0.00%     70.39% # Class of committed instruction
system.cpu.commit.op_class_0::SimdMultAcc            0      0.00%     70.39% # Class of committed instruction
system.cpu.commit.op_class_0::SimdShift           186      0.00%     70.39% # Class of committed instruction
system.cpu.commit.op_class_0::SimdShiftAcc            0      0.00%     70.39% # Class of committed instruction
system.cpu.commit.op_class_0::SimdSqrt              0      0.00%     70.39% # Class of committed instruction
system.cpu.commit.op_class_0::SimdFloatAdd         8198      0.01%     70.40% # Class of committed instruction
system.cpu.commit.op_class_0::SimdFloatAlu            0      0.00%     70.40% # Class of committed instruction
system.cpu.commit.op_class_0::SimdFloatCmp            0      0.00%     70.40% # Class of committed instruction
system.cpu.commit.op_class_0::SimdFloatCvt       301240      0.49%     70.90% # Class of committed instruction
system.cpu.commit.op_class_0::SimdFloatDiv            4      0.00%     70.90% # Class of committed instruction
system.cpu.commit.op_class_0::SimdFloatMisc            0      0.00%     70.90% # Class of committed instruction
system.cpu.commit.op_class_0::SimdFloatMult            0      0.00%     70.90% # Class of committed instruction
system.cpu.commit.op_class_0::SimdFloatMultAcc            0      0.00%     70.90% # Class of committed instruction
system.cpu.commit.op_class_0::SimdFloatSqrt            0      0.00%     70.90% # Class of committed instruction
system.cpu.commit.op_class_0::SimdAes               0      0.00%     70.90% # Class of committed instruction
system.cpu.commit.op_class_0::SimdAesMix            0      0.00%     70.90% # Class of committed instruction
system.cpu.commit.op_class_0::SimdSha1Hash            0      0.00%     70.90% # Class of committed instruction
system.cpu.commit.op_class_0::SimdSha1Hash2            0      0.00%     70.90% # Class of committed instruction
system.cpu.commit.op_class_0::SimdSha256Hash            0      0.00%     70.90% # Class of committed instruction
system.cpu.commit.op_class_0::SimdSha256Hash2            0      0.00%     70.90% # Class of committed instruction
system.cpu.commit.op_class_0::SimdShaSigma2            0      0.00%     70.90% # Class of committed instruction
system.cpu.commit.op_class_0::SimdShaSigma3            0      0.00%     70.90% # Class of committed instruction
system.cpu.commit.op_class_0::MemRead        12162442     19.94%     90.84% # Class of committed instruction
system.cpu.commit.op_class_0::MemWrite        5038001      8.26%     99.10% # Class of committed instruction
system.cpu.commit.op_class_0::FloatMemRead       516712      0.85%     99.95% # Class of committed instruction
system.cpu.commit.op_class_0::FloatMemWrite        33258      0.05%    100.00% # Class of committed instruction
system.cpu.commit.op_class_0::IprAccess             0      0.00%    100.00% # Class of committed instruction
system.cpu.commit.op_class_0::InstPrefetch            0      0.00%    100.00% # Class of committed instruction
system.cpu.commit.op_class_0::total          60989001                       # Class of committed instruction
system.cpu.commit.bw_lim_events               4029217                       # number cycles where commit BW limit reached
system.cpu.rob.rob_reads                     90689504                       # The number of ROB reads
system.cpu.rob.rob_writes                   147601566                       # The number of ROB writes
system.cpu.timesIdled                            1183                       # Number of times that the entire CPU went into an idle state and unscheduled itself
system.cpu.idleCycles                          134496                       # Total number of cycles that the CPU has spent unscheduled due to idling
system.cpu.committedInsts                    35032856                       # Number of Instructions Simulated
system.cpu.committedOps                      60989001                       # Number of Ops (including micro ops) Simulated
system.cpu.cpi                               0.673721                       # CPI: Cycles Per Instruction
system.cpu.cpi_total                         0.673721                       # CPI: Total CPI of All Threads
system.cpu.ipc                               1.484294                       # IPC: Instructions Per Cycle
system.cpu.ipc_total                         1.484294                       # IPC: Total IPC of All Threads
system.cpu.int_regfile_reads                110595733                       # number of integer regfile reads
system.cpu.int_regfile_writes                55588256                       # number of integer regfile writes
system.cpu.fp_regfile_reads                   1100080                       # number of floating regfile reads
system.cpu.fp_regfile_writes                   705261                       # number of floating regfile writes
system.cpu.cc_regfile_reads                  30643186                       # number of cc regfile reads
system.cpu.cc_regfile_writes                 20537957                       # number of cc regfile writes
system.cpu.misc_regfile_reads                33385775                       # number of misc regfile reads
system.cpu.dcache.tags.pwrStateResidencyTicks::UNDEFINED  11801188000                       # Cumulative time (in ticks) in various power states
system.cpu.dcache.tags.tagsinuse          1013.119075                       # Cycle average of tags in use
system.cpu.dcache.tags.total_refs            12305741                       # Total number of references to valid blocks.
system.cpu.dcache.tags.sampled_refs             74428                       # Sample count of references to valid blocks.
system.cpu.dcache.tags.avg_refs            165.337521                       # Average number of references to valid blocks.
system.cpu.dcache.tags.warmup_cycle            180500                       # Cycle when the warmup percentage was hit.
system.cpu.dcache.tags.occ_blocks::.cpu.data  1013.119075                       # Average occupied blocks per requestor
system.cpu.dcache.tags.occ_percent::.cpu.data     0.989374                       # Average percentage of cache occupancy
system.cpu.dcache.tags.occ_percent::total     0.989374                       # Average percentage of cache occupancy
system.cpu.dcache.tags.occ_task_id_blocks::1024         1024                       # Occupied blocks per task id
system.cpu.dcache.tags.age_task_id_blocks_1024::0           71                       # Occupied blocks per task id
system.cpu.dcache.tags.age_task_id_blocks_1024::1          133                       # Occupied blocks per task id
system.cpu.dcache.tags.age_task_id_blocks_1024::2          820                       # Occupied blocks per task id
system.cpu.dcache.tags.occ_task_id_percent::1024            1                       # Percentage of cache occupancy per task id
system.cpu.dcache.tags.tag_accesses          24882376                       # Number of tag accesses
system.cpu.dcache.tags.data_accesses         24882376                       # Number of data accesses
system.cpu.dcache.pwrStateResidencyTicks::UNDEFINED  11801188000                       # Cumulative time (in ticks) in various power states
system.cpu.dcache.ReadReq_hits::.cpu.data      7186356                       # number of ReadReq hits
system.cpu.dcache.ReadReq_hits::total         7186356                       # number of ReadReq hits
system.cpu.dcache.WriteReq_hits::.cpu.data      5044941                       # number of WriteReq hits
system.cpu.dcache.WriteReq_hits::total        5044941                       # number of WriteReq hits
system.cpu.dcache.SoftPFReq_hits::.cpu.data           10                       # number of SoftPFReq hits
system.cpu.dcache.SoftPFReq_hits::total            10                       # number of SoftPFReq hits
system.cpu.dcache.demand_hits::.cpu.data     12231297                       # number of demand (read+write) hits
system.cpu.dcache.demand_hits::total         12231297                       # number of demand (read+write) hits
system.cpu.dcache.overall_hits::.cpu.data     12231307                       # number of overall hits
system.cpu.dcache.overall_hits::total        12231307                       # number of overall hits
system.cpu.dcache.ReadReq_misses::.cpu.data       146340                       # number of ReadReq misses
system.cpu.dcache.ReadReq_misses::total        146340                       # number of ReadReq misses
system.cpu.dcache.WriteReq_misses::.cpu.data        26325                       # number of WriteReq misses
system.cpu.dcache.WriteReq_misses::total        26325                       # number of WriteReq misses
system.cpu.dcache.SoftPFReq_misses::.cpu.data            2                       # number of SoftPFReq misses
system.cpu.dcache.SoftPFReq_misses::total            2                       # number of SoftPFReq misses
system.cpu.dcache.demand_misses::.cpu.data       172665                       # number of demand (read+write) misses
system.cpu.dcache.demand_misses::total         172665                       # number of demand (read+write) misses
system.cpu.dcache.overall_misses::.cpu.data       172667                       # number of overall misses
system.cpu.dcache.overall_misses::total        172667                       # number of overall misses
system.cpu.dcache.ReadReq_miss_latency::.cpu.data   1538343500                       # number of ReadReq miss cycles
system.cpu.dcache.ReadReq_miss_latency::total   1538343500                       # number of ReadReq miss cycles
system.cpu.dcache.WriteReq_miss_latency::.cpu.data   1503061499                       # number of WriteReq miss cycles
system.cpu.dcache.WriteReq_miss_latency::total   1503061499                       # number of WriteReq miss cycles
system.cpu.dcache.demand_miss_latency::.cpu.data   3041404999                       # number of demand (read+write) miss cycles
system.cpu.dcache.demand_miss_latency::total   3041404999                       # number of demand (read+write) miss cycles
system.cpu.dcache.overall_miss_latency::.cpu.data   3041404999                       # number of overall miss cycles
system.cpu.dcache.overall_miss_latency::total   3041404999                       # number of overall miss cycles
system.cpu.dcache.ReadReq_accesses::.cpu.data      7332696                       # number of ReadReq accesses(hits+misses)
[...]
system.l2.overall_accesses::.cpu.data           74428                       # number of overall (read+write) accesses
system.l2.overall_accesses::total               77091                       # number of overall (read+write) accesses
system.l2.ReadExReq_miss_rate::.cpu.data     0.612797                       # miss rate for ReadExReq accesses
system.l2.ReadExReq_miss_rate::total         0.612797                       # miss rate for ReadExReq accesses
system.l2.ReadCleanReq_miss_rate::.cpu.inst     0.767180                       # miss rate for ReadCleanReq accesses
system.l2.ReadCleanReq_miss_rate::total      0.767180                       # miss rate for ReadCleanReq accesses
system.l2.ReadSharedReq_miss_rate::.cpu.data     0.005631                       # miss rate for ReadSharedReq accesses
system.l2.ReadSharedReq_miss_rate::total     0.005631                       # miss rate for ReadSharedReq accesses
system.l2.demand_miss_rate::.cpu.inst        0.767180                       # miss rate for demand accesses
system.l2.demand_miss_rate::.cpu.data        0.220213                       # miss rate for demand accesses
system.l2.demand_miss_rate::total            0.239107                       # miss rate for demand accesses
system.l2.overall_miss_rate::.cpu.inst       0.767180                       # miss rate for overall accesses
system.l2.overall_miss_rate::.cpu.data       0.220213                       # miss rate for overall accesses
system.l2.overall_miss_rate::total           0.239107                       # miss rate for overall accesses
system.l2.ReadExReq_avg_miss_latency::.cpu.data 82224.021341                       # average ReadExReq miss latency
system.l2.ReadExReq_avg_miss_latency::total 82224.021341                       # average ReadExReq miss latency
system.l2.ReadCleanReq_avg_miss_latency::.cpu.inst 93916.544298                       # average ReadCleanReq miss latency
system.l2.ReadCleanReq_avg_miss_latency::total 93916.544298                       # average ReadCleanReq miss latency
system.l2.ReadSharedReq_avg_miss_latency::.cpu.data 97937.269373                       # average ReadSharedReq miss latency
system.l2.ReadSharedReq_avg_miss_latency::total 97937.269373                       # average ReadSharedReq miss latency
system.l2.demand_avg_miss_latency::.cpu.inst 93916.544298                       # average overall miss latency
system.l2.demand_avg_miss_latency::.cpu.data 82483.831605                       # average overall miss latency
system.l2.demand_avg_miss_latency::total 83750.962947                       # average overall miss latency
system.l2.overall_avg_miss_latency::.cpu.inst 93916.544298                       # average overall miss latency
system.l2.overall_avg_miss_latency::.cpu.data 82483.831605                       # average overall miss latency
system.l2.overall_avg_miss_latency::total 83750.962947                       # average overall miss latency
system.l2.blocked_cycles::no_mshrs                  0                       # number of cycles access was blocked
system.l2.blocked_cycles::no_targets                0                       # number of cycles access was blocked
system.l2.blocked::no_mshrs                         0                       # number of cycles access was blocked
system.l2.blocked::no_targets                       0                       # number of cycles access was blocked
system.l2.avg_blocked_cycles::no_mshrs            nan                       # average number of cycles each access was blocked
system.l2.avg_blocked_cycles::no_targets          nan                       # average number of cycles each access was blocked
system.l2.ReadCleanReq_mshr_hits::.cpu.inst            1                       # number of ReadCleanReq MSHR hits
system.l2.ReadCleanReq_mshr_hits::total             1                       # number of ReadCleanReq MSHR hits
system.l2.ReadSharedReq_mshr_hits::.cpu.data            1                       # number of ReadSharedReq MSHR hits
system.l2.ReadSharedReq_mshr_hits::total            1                       # number of ReadSharedReq MSHR hits
system.l2.demand_mshr_hits::.cpu.inst               1                       # number of demand (read+write) MSHR hits
system.l2.demand_mshr_hits::.cpu.data               1                       # number of demand (read+write) MSHR hits
system.l2.demand_mshr_hits::total                   2                       # number of demand (read+write) MSHR hits
system.l2.overall_mshr_hits::.cpu.inst              1                       # number of overall MSHR hits
system.l2.overall_mshr_hits::.cpu.data              1                       # number of overall MSHR hits
system.l2.overall_mshr_hits::total                  2                       # number of overall MSHR hits
system.l2.ReadExReq_mshr_misses::.cpu.data        16119                       # number of ReadExReq MSHR misses
system.l2.ReadExReq_mshr_misses::total          16119                       # number of ReadExReq MSHR misses
system.l2.ReadCleanReq_mshr_misses::.cpu.inst         2042                       # number of ReadCleanReq MSHR misses
system.l2.ReadCleanReq_mshr_misses::total         2042                       # number of ReadCleanReq MSHR misses
system.l2.ReadSharedReq_mshr_misses::.cpu.data          270                       # number of ReadSharedReq MSHR misses
system.l2.ReadSharedReq_mshr_misses::total          270                       # number of ReadSharedReq MSHR misses
system.l2.demand_mshr_misses::.cpu.inst          2042                       # number of demand (read+write) MSHR misses
system.l2.demand_mshr_misses::.cpu.data         16389                       # number of demand (read+write) MSHR misses
system.l2.demand_mshr_misses::total             18431                       # number of demand (read+write) MSHR misses
system.l2.overall_mshr_misses::.cpu.inst         2042                       # number of overall MSHR misses
system.l2.overall_mshr_misses::.cpu.data        16389                       # number of overall MSHR misses
system.l2.overall_mshr_misses::total            18431                       # number of overall MSHR misses
system.l2.ReadExReq_mshr_miss_latency::.cpu.data   1164179000                       # number of ReadExReq MSHR miss cycles
system.l2.ReadExReq_mshr_miss_latency::total   1164179000                       # number of ReadExReq MSHR miss cycles
system.l2.ReadCleanReq_mshr_miss_latency::.cpu.inst    171205000                       # number of ReadCleanReq MSHR miss cycles
system.l2.ReadCleanReq_mshr_miss_latency::total    171205000                       # number of ReadCleanReq MSHR miss cycles
system.l2.ReadSharedReq_mshr_miss_latency::.cpu.data     23775000                       # number of ReadSharedReq MSHR miss cycles
system.l2.ReadSharedReq_mshr_miss_latency::total     23775000                       # number of ReadSharedReq MSHR miss cycles
system.l2.demand_mshr_miss_latency::.cpu.inst    171205000                       # number of demand (read+write) MSHR miss cycles
system.l2.demand_mshr_miss_latency::.cpu.data   1187954000                       # number of demand (read+write) MSHR miss cycles
system.l2.demand_mshr_miss_latency::total   1359159000                       # number of demand (read+write) MSHR miss cycles
system.l2.overall_mshr_miss_latency::.cpu.inst    171205000                       # number of overall MSHR miss cycles
system.l2.overall_mshr_miss_latency::.cpu.data   1187954000                       # number of overall MSHR miss cycles
system.l2.overall_mshr_miss_latency::total   1359159000                       # number of overall MSHR miss cycles
system.l2.ReadExReq_mshr_miss_rate::.cpu.data     0.612797                       # mshr miss rate for ReadExReq accesses
system.l2.ReadExReq_mshr_miss_rate::total     0.612797                       # mshr miss rate for ReadExReq accesses
system.l2.ReadCleanReq_mshr_miss_rate::.cpu.inst     0.766804                       # mshr miss rate for ReadCleanReq accesses
system.l2.ReadCleanReq_mshr_miss_rate::total     0.766804                       # mshr miss rate for ReadCleanReq accesses
system.l2.ReadSharedReq_mshr_miss_rate::.cpu.data     0.005611                       # mshr miss rate for ReadSharedReq accesses
system.l2.ReadSharedReq_mshr_miss_rate::total     0.005611                       # mshr miss rate for ReadSharedReq accesses
system.l2.demand_mshr_miss_rate::.cpu.inst     0.766804                       # mshr miss rate for demand accesses
system.l2.demand_mshr_miss_rate::.cpu.data     0.220199                       # mshr miss rate for demand accesses
system.l2.demand_mshr_miss_rate::total       0.239081                       # mshr miss rate for demand accesses
system.l2.overall_mshr_miss_rate::.cpu.inst     0.766804                       # mshr miss rate for overall accesses
system.l2.overall_mshr_miss_rate::.cpu.data     0.220199                       # mshr miss rate for overall accesses
system.l2.overall_mshr_miss_rate::total      0.239081                       # mshr miss rate for overall accesses
system.l2.ReadExReq_avg_mshr_miss_latency::.cpu.data 72224.021341                       # average ReadExReq mshr miss latency
system.l2.ReadExReq_avg_mshr_miss_latency::total 72224.021341                       # average ReadExReq mshr miss latency
system.l2.ReadCleanReq_avg_mshr_miss_latency::.cpu.inst 83841.821743                       # average ReadCleanReq mshr miss latency
system.l2.ReadCleanReq_avg_mshr_miss_latency::total 83841.821743                       # average ReadCleanReq mshr miss latency
system.l2.ReadSharedReq_avg_mshr_miss_latency::.cpu.data 88055.555556                       # average ReadSharedReq mshr miss latency
system.l2.ReadSharedReq_avg_mshr_miss_latency::total 88055.555556                       # average ReadSharedReq mshr miss latency
system.l2.demand_avg_mshr_miss_latency::.cpu.inst 83841.821743                       # average overall mshr miss latency
system.l2.demand_avg_mshr_miss_latency::.cpu.data 72484.837391                       # average overall mshr miss latency
system.l2.demand_avg_mshr_miss_latency::total 73743.095871                       # average overall mshr miss latency
system.l2.overall_avg_mshr_miss_latency::.cpu.inst 83841.821743                       # average overall mshr miss latency
system.l2.overall_avg_mshr_miss_latency::.cpu.data 72484.837391                       # average overall mshr miss latency
system.l2.overall_avg_mshr_miss_latency::total 73743.095871                       # average overall mshr miss latency
system.l2.replacements                              0                       # number of replacements
system.membus.snoop_filter.tot_requests         18430                       # Total number of requests made to the snoop filter.
system.membus.snoop_filter.hit_single_requests            0                       # Number of requests hitting in the snoop filter with a single holder of the requested data.
system.membus.snoop_filter.hit_multi_requests            0                       # Number of requests hitting in the snoop filter with multiple (>1) holders of the requested data.
system.membus.snoop_filter.tot_snoops               0                       # Total number of snoops made to the snoop filter.
system.membus.snoop_filter.hit_single_snoops            0                       # Number of snoops hitting in the snoop filter with a single holder of the requested data.
system.membus.snoop_filter.hit_multi_snoops            0                       # Number of snoops hitting in the snoop filter with multiple (>1) holders of the requested data.
system.membus.pwrStateResidencyTicks::UNDEFINED  11801188000                       # Cumulative time (in ticks) in various power states
system.membus.trans_dist::ReadResp               2311                       # Transaction distribution
system.membus.trans_dist::ReadExReq             16119                       # Transaction distribution
system.membus.trans_dist::ReadExResp            16119                       # Transaction distribution
system.membus.trans_dist::ReadSharedReq          2311                       # Transaction distribution
system.membus.pkt_count_system.l2.mem_side::system.mem_ctrls.port        36860                       # Packet count per connected master and slave (bytes)
system.membus.pkt_count_system.l2.mem_side::total        36860                       # Packet count per connected master and slave (bytes)
system.membus.pkt_count::total                  36860                       # Packet count per connected master and slave (bytes)
system.membus.pkt_size_system.l2.mem_side::system.mem_ctrls.port      1179520                       # Cumulative packet size per connected master and slave (bytes)
system.membus.pkt_size_system.l2.mem_side::total      1179520                       # Cumulative packet size per connected master and slave (bytes)
system.membus.pkt_size::total                 1179520                       # Cumulative packet size per connected master and slave (bytes)
system.membus.snoops                                0                       # Total snoops (count)
system.membus.snoopTraffic                          0                       # Total snoop traffic (bytes)
system.membus.snoop_fanout::samples             18430                       # Request fanout histogram
system.membus.snoop_fanout::mean                    0                       # Request fanout histogram
system.membus.snoop_fanout::stdev                   0                       # Request fanout histogram
system.membus.snoop_fanout::underflows              0      0.00%      0.00% # Request fanout histogram
system.membus.snoop_fanout::0                   18430    100.00%    100.00% # Request fanout histogram
system.membus.snoop_fanout::1                       0      0.00%    100.00% # Request fanout histogram
system.membus.snoop_fanout::overflows               0      0.00%    100.00% # Request fanout histogram
system.membus.snoop_fanout::min_value               0                       # Request fanout histogram
system.membus.snoop_fanout::max_value               0                       # Request fanout histogram
system.membus.snoop_fanout::total               18430                       # Request fanout histogram
system.membus.reqLayer2.occupancy            22603000                       # Layer occupancy (ticks)
system.membus.reqLayer2.utilization               0.2                       # Layer utilization (%)
system.membus.respLayer1.occupancy           97197500                       # Layer occupancy (ticks)
system.membus.respLayer1.utilization              0.8                       # Layer utilization (%)
system.tol2bus.snoop_filter.tot_requests       152658                       # Total number of requests made to the snoop filter.
system.tol2bus.snoop_filter.hit_single_requests        75566                       # Number of requests hitting in the snoop filter with a single holder of the requested data.
system.tol2bus.snoop_filter.hit_multi_requests           59                       # Number of requests hitting in the snoop filter with multiple (>1) holders of the requested data.
system.tol2bus.snoop_filter.tot_snoops              0                       # Total number of snoops made to the snoop filter.
system.tol2bus.snoop_filter.hit_single_snoops            0                       # Number of snoops hitting in the snoop filter with a single holder of the requested data.
system.tol2bus.snoop_filter.hit_multi_snoops            0                       # Number of snoops hitting in the snoop filter with multiple (>1) holders of the requested data.
system.tol2bus.pwrStateResidencyTicks::UNDEFINED  11801188000                       # Cumulative time (in ticks) in various power states
system.tol2bus.trans_dist::ReadResp             50793                       # Transaction distribution
system.tol2bus.trans_dist::WritebackDirty        73163                       # Transaction distribution
system.tol2bus.trans_dist::WritebackClean         2150                       # Transaction distribution
system.tol2bus.trans_dist::CleanEvict             241                       # Transaction distribution
system.tol2bus.trans_dist::UpgradeReq               6                       # Transaction distribution
system.tol2bus.trans_dist::UpgradeResp              6                       # Transaction distribution
system.tol2bus.trans_dist::ReadExReq            26304                       # Transaction distribution
system.tol2bus.trans_dist::ReadExResp           26304                       # Transaction distribution
system.tol2bus.trans_dist::ReadCleanReq          2670                       # Transaction distribution
system.tol2bus.trans_dist::ReadSharedReq        48124                       # Transaction distribution
system.tol2bus.pkt_count_system.cpu.icache.mem_side::system.l2.cpu_side         7482                       # Packet count per connected master and slave (bytes)
system.tol2bus.pkt_count_system.cpu.dcache.mem_side::system.l2.cpu_side       222272                       # Packet count per connected master and slave (bytes)
system.tol2bus.pkt_count::total                229754                       # Packet count per connected master and slave (bytes)
system.tol2bus.pkt_size_system.cpu.icache.mem_side::system.l2.cpu_side       307968                       # Cumulative packet size per connected master and slave (bytes)
system.tol2bus.pkt_size_system.cpu.dcache.mem_side::system.l2.cpu_side      9445824                       # Cumulative packet size per connected master and slave (bytes)
system.tol2bus.pkt_size::total                9753792                       # Cumulative packet size per connected master and slave (bytes)
system.tol2bus.snoops                               7                       # Total snoops (count)
system.tol2bus.snoopTraffic                       448                       # Total snoop traffic (bytes)
system.tol2bus.snoop_fanout::samples            77104                       # Request fanout histogram
system.tol2bus.snoop_fanout::mean            0.000921                       # Request fanout histogram
system.tol2bus.snoop_fanout::stdev           0.030331                       # Request fanout histogram
system.tol2bus.snoop_fanout::underflows             0      0.00%      0.00% # Request fanout histogram
system.tol2bus.snoop_fanout::0                  77033     99.91%     99.91% # Request fanout histogram
system.tol2bus.snoop_fanout::1                     71      0.09%    100.00% # Request fanout histogram
system.tol2bus.snoop_fanout::2                      0      0.00%    100.00% # Request fanout histogram
system.tol2bus.snoop_fanout::3                      0      0.00%    100.00% # Request fanout histogram
system.tol2bus.snoop_fanout::4                      0      0.00%    100.00% # Request fanout histogram
system.tol2bus.snoop_fanout::overflows              0      0.00%    100.00% # Request fanout histogram
system.tol2bus.snoop_fanout::min_value              0                       # Request fanout histogram
system.tol2bus.snoop_fanout::max_value              1                       # Request fanout histogram
system.tol2bus.snoop_fanout::total              77104                       # Request fanout histogram
system.tol2bus.reqLayer0.occupancy          151642000                       # Layer occupancy (ticks)
system.tol2bus.reqLayer0.utilization              1.3                       # Layer utilization (%)
system.tol2bus.respLayer0.occupancy           4004997                       # Layer occupancy (ticks)
system.tol2bus.respLayer0.utilization             0.0                       # Layer utilization (%)
system.tol2bus.respLayer1.occupancy         111646497                       # Layer occupancy (ticks)
system.tol2bus.respLayer1.utilization             0.9                       # Layer utilization (%)

---------- End Simulation Statistics   ----------
